464

Cd 1.44367 6.56585 9.10834
Cd -1.44367 -6.56585 19.5618
Cd 1.44367 -6.56585 -9.10834
Cd -1.44367 6.56585 1.34516
Cd 6.73882 18.8339 9.10834
Cd 3.85148 5.70218 19.5618
Cd 6.73882 5.70218 -9.10834
Cd 3.85148 18.8339 1.34516
H 10.4579 5.68255 13.5101
H -10.4579 -5.68255 23.9636
H 10.4579 -5.68255 -13.5101
H -10.4579 5.68255 -3.0566
H 15.7531 17.9506 13.5101
H -5.16277 6.58548 23.9636
H 15.7531 6.58548 -13.5101
H -5.16277 17.9506 -3.0566
H 1.85966 4.5907 16.7716
H -1.85966 -4.5907 27.2251
H 1.85966 -4.5907 -16.7716
H -1.85966 4.5907 -6.3181
H 7.15481 16.8587 16.7716
H 3.43549 7.67734 27.2251
H 7.15481 7.67734 -16.7716
H 3.43549 16.8587 -6.3181
H 3.82945 4.73546 15.6301
H -3.82945 -4.73546 26.0836
H 3.82945 -4.73546 -15.6301
H -3.82945 4.73546 -5.17657
H 9.1246 17.0035 15.6301
H 1.4657 7.53257 26.0836
H 9.1246 7.53257 -15.6301
H 1.4657 17.0035 -5.17657
H 3.92794 4.64222 9.95382
H -3.92794 -4.64222 20.4073
H 3.92794 -4.64222 -9.95382
H -3.92794 4.64222 0.499677
H 9.22309 16.9103 9.95382
H 1.36721 7.62581 20.4073
H 9.22309 7.62581 -9.95382
H 1.36721 16.9103 0.499677
H 2.45801 4.6275 6.36409
H -2.45801 -4.6275 16.8176
H 2.45801 -4.6275 -6.36409
H -2.45801 4.6275 4.08941
H 7.75316 16.8955 6.36409
H 2.83714 7.64053 16.8176
H 7.75316 7.64053 -6.36409
H 2.83714 16.8955 4.08941
H 4.25836 3.01794 6.39545
H -4.25836 -3.01794 16.849
H 4.25836 -3.01794 -6.39545
H -4.25836 3.01794 4.05805
H 9.55351 15.286 6.39545
H 1.03679 9.2501 16.849
H 9.55351 9.2501 -6.39545
H 1.03679 15.286 4.05805
H 6.21545 3.32954 9.44578
H -6.21545 -3.32954 19.8993
H 6.21545 -3.32954 -9.44578
H -6.21545 3.32954 1.00772
H 11.5106 15.5976 9.44578
H -0.920297 8.93849 19.8993
H 11.5106 8.93849 -9.44578
H -0.920297 15.5976 1.00772
H 5.2655 2.08311 9.52523
H -5.2655 -2.08311 19.9787
H 5.2655 -2.08311 -9.52523
H -5.2655 2.08311 0.928271
H 10.5606 14.3511 9.52523
H 0.0296528 10.1849 19.9787
H 10.5606 10.1849 -9.52523
H 0.0296528 14.3511 0.928271
H 5.20937 0.456371 7.69587
H -5.20937 -0.456371 18.1494
H 5.20937 -0.456371 -7.69587
H -5.20937 0.456371 2.75763
H 10.5045 12.7244 7.69587
H 0.0857814 11.8117 18.1494
H 10.5045 11.8117 -7.69587
H 0.0857814 12.7244 2.75763
H 1.04632 11.7577 5.91877
H -1.04632 -11.7577 16.3723
H 1.04632 -11.7577 -5.91877
H -1.04632 11.7577 4.53473
H 6.34147 24.0257 5.91877
H 4.24883 0.51035 16.3723
H 6.34147 0.51035 -5.91877
H 4.24883 24.0257 4.53473
H 9.03353 2.41435 6.03167
H -9.03353 -2.41435 16.4852
H 9.03353 -2.41435 -6.03167
H -9.03353 2.41435 4.42183
H 14.3287 14.6824 6.03167
H -3.73838 9.85369 16.4852
H 14.3287 9.85369 -6.03167
H -3.73838 14.6824 4.42183
H 7.87707 3.47921 7.72723
H -7.87707 -3.47921 18.1807
H 7.87707 -3.47921 -7.72723
H -7.87707 3.47921 2.72627
H 13.1722 15.7472 7.72723
H -2.58192 8.78882 18.1807
H 13.1722 8.78882 -7.72723
H -2.58192 15.7472 2.72627
H 6.23345 8.05765 0.982629
H -6.23345 -8.05765 11.4361
H 6.23345 -8.05765 -0.982629
H -6.23345 8.05765 9.47087
H 11.5286 20.3257 0.982629
H -0.938301 4.21039 11.4361
H 11.5286 4.21039 -0.982629
H -0.938301 20.3257 9.47087
H 9.41584 9.9641 2.22869
H -9.41584 -9.9641 12.6822
H 9.41584 -9.9641 -2.22869
H -9.41584 9.9641 8.22481
H 14.711 22.2321 2.22869
H -4.12069 2.30394 12.6822
H 14.711 2.30394 -2.22869
H -4.12069 22.2321 8.22481
H 7.58265 11.6178 2.14715
H -7.58265 -11.6178 12.6006
H 7.58265 -11.6178 -2.14715
H -7.58265 11.6178 8.30635
H 12.8778 23.8859 2.14715
H -2.2875 0.650206 12.6006
H 12.8778 0.650206 -2.14715
H -2.2875 23.8859 8.30635
H 5.24855 11.2203 0.535219
H -5.24855 -11.2203 10.9887
H 5.24855 -11.2203 -0.535219
H -5.24855 11.2203 9.91828
H 10.5437 23.4884 0.535219
H 0.0465973 1.04769 10.9887
H 10.5437 1.04769 -0.535219
H 0.0465973 23.4884 9.91828
H 4.57395 9.85859 0.913636
H -4.57395 -9.85859 11.3671
H 4.57395 -9.85859 -0.913636
H -4.57395 9.85859 9.53986
H 9.8691 22.1266 0.913636
H 0.721199 2.40944 11.3671
H 9.8691 2.40944 -0.913636
H 0.721199 22.1266 9.53986
H 3.87605 9.53226 3.34303
H -3.87605 -9.53226 13.7965
H 3.87605 -9.53226 -3.34303
H -3.87605 9.53226 7.11047
H 9.1712 21.8003 3.34303
H 1.4191 2.73577 13.7965
H 9.1712 2.73577 -3.34303
H 1.4191 21.8003 7.11047
H 3.00023 10.5701 5.22257
H -3.00023 -10.5701 15.6761
H 3.00023 -10.5701 -5.22257
H -3.00023 10.5701 5.23093
H 8.29538 22.8382 5.22257
H 2.29492 1.6979 15.6761
H 8.29538 1.6979 -5.22257
H 2.29492 22.8382 5.23093
H 9.18179 1.85247 3.74026
H -9.18179 -1.85247 14.1938
H 9.18179 -1.85247 -3.74026
H -9.18179 1.85247 6.71324
H 14.4769 14.1205 3.74026
H -3.88664 10.4156 14.1938
H 14.4769 10.4156 -3.74026
H -3.88664 14.1205 6.71324
H 10.2218 0.86367 1.94226
H -10.2218 -0.86367 12.3958
H 10.2218 -0.86367 -1.94226
H -10.2218 0.86367 8.51124
H 15.5169 13.1317 1.94226
H -4.92661 11.4044 12.3958
H 15.5169 11.4044 -1.94226
H -4.92661 13.1317 8.51124
C 1.82471 6.00152 11.7644
C -1.82471 -6.00152 22.2179
C 1.82471 -6.00152 -11.7644
C -1.82471 6.00152 -1.31087
C 7.11986 18.2696 11.7644
C 3.47044 6.26651 22.2179
C 7.11986 6.26651 -11.7644
C 3.47044 18.2696 -1.31087
C 1.84483 5.58441 13.209
C -1.84483 -5.58441 23.6625
C 1.84483 -5.58441 -13.209
C -1.84483 5.58441 -2.75554
C 7.13998 17.8524 13.209
C 3.45032 6.68363 23.6625
C 7.13998 6.68363 -13.209
C 3.45032 17.8524 -2.75554
C 0.672484 5.50835 13.9429
C -0.672484 -5.50835 24.3964
C 0.672484 -5.50835 -13.9429
C -0.672484 5.50835 -3.48938
C 5.96763 17.7764 13.9429
C 4.62267 6.75969 24.3964
C 5.96763 6.75969 -13.9429
C 4.62267 17.7764 -3.48938
C 0.638595 5.18202 15.2997
C -0.638595 -5.18202 25.7532
C 0.638595 -5.18202 -15.2997
C -0.638595 5.18202 -4.84624
C 5.93375 17.4501 15.2997
C 4.65655 7.08602 25.7532
C 5.93375 7.08602 -15.2997
C 4.65655 17.4501 -4.84624
C 1.84695 4.8606 15.883
C -1.84695 -4.8606 26.3365
C 1.84695 -4.8606 -15.883
C -1.84695 4.8606 -5.42955
C 7.1421 17.1286 15.883
C 3.4482 7.40744 26.3365
C 7.1421 7.40744 -15.883
C 3.4482 17.1286 -5.42955
C 3.03412 4.9293 15.191
C -3.03412 -4.9293 25.6445
C 3.03412 -4.9293 -15.191
C -3.03412 4.9293 -4.73753
C 8.32927 17.1973 15.191
C 2.26103 7.33874 25.6445
C 8.32927 7.33874 -15.191
C 2.26103 17.1973 -4.73753
C 3.06907 5.28262 13.853
C -3.06907 -5.28262 24.3065
C 3.06907 -5.28262 -13.853
C -3.06907 5.28262 -3.39948
C 8.36422 17.5507 13.853
C 2.22608 6.98542 24.3065
C 8.36422 6.98542 -13.853
C 2.22608 17.5507 -3.39948
C 4.40027 5.31451 13.1233
C -4.40027 -5.31451 23.5768
C 4.40027 -5.31451 -13.1233
C -4.40027 5.31451 -2.66982
C 9.69542 17.5825 13.1233
C 0.89488 6.95352 23.5768
C 9.69542 6.95352 -13.1233
C 0.89488 17.5825 -2.66982
C 3.78497 4.44103 9.05691
C -3.78497 -4.44103 19.5104
C 3.78497 -4.44103 -9.05691
C -3.78497 4.44103 1.39659
C 9.08012 16.7091 9.05691
C 1.51018 7.82701 19.5104
C 9.08012 7.82701 -9.05691
C 1.51018 16.7091 1.39659
C 2.98117 4.43121 7.10838
C -2.98117 -4.43121 17.5619
C 2.98117 -4.43121 -7.10838
C -2.98117 4.43121 3.34512
C 8.27632 16.6992 7.10838
C 2.31398 7.83682 17.5619
C 8.27632 7.83682 -7.10838
C 2.31398 16.6992 3.34512
C 3.98195 3.54546 7.11047
C -3.98195 -3.54546 17.564
C 3.98195 -3.54546 -7.11047
C -3.98195 3.54546 3.34303
C 9.2771 15.8135 7.11047
C 1.3132 8.72257 17.564
C 9.2771 8.72257 -7.11047
C 1.3132 15.8135 3.34303
C 5.6298 2.7554 8.92729
C -5.6298 -2.7554 19.3808
C 5.6298 -2.7554 -8.92729
C -5.6298 2.7554 1.52621
C 10.925 15.0234 8.92729
C -0.334653 9.51263 19.3808
C 10.925 9.51263 -8.92729
C -0.334653 15.0234 1.52621
C 6.41454 2.09047 7.86312
C -6.41454 -2.09047 18.3166
C 6.41454 -2.09047 -7.86312
C -6.41454 2.09047 2.59038
C 11.7097 14.3585 7.86312
C -1.11939 10.1776 18.3166
C 11.7097 10.1776 -7.86312
C -1.11939 14.3585 2.59038
C 5.96552 0.868577 7.34463
C -5.96552 -0.868577 17.7981
C 5.96552 -0.868577 -7.34463
C -5.96552 0.868577 3.10887
C 11.2607 13.1366 7.34463
C -0.670366 11.3995 17.7981
C 11.2607 11.3995 -7.34463
C -0.670366 13.1366 3.10887
C 6.67083 0.277258 6.28883
C -6.67083 -0.277258 16.7423
C 6.67083 -0.277258 -6.28883
C -6.67083 0.277258 4.16467
C 11.966 12.5453 6.28883
C -1.37568 11.9908 16.7423
C 11.966 11.9908 -6.28883
C -1.37568 12.5453 4.16467
C 7.85165 0.819505 5.76615
C -7.85165 -0.819505 16.2197
C 7.85165 -0.819505 -5.76615
C -7.85165 0.819505 4.68735
C 13.1468 13.0875 5.76615
C -2.5565 11.4485 16.2197
C 13.1468 11.4485 -5.76615
C -2.5565 13.0875 4.68735
C 8.25302 2.01932 6.34946
C -8.25302 -2.01932 16.803
C 8.25302 -2.01932 -6.34946
C -8.25302 2.01932 4.10404
C 13.5482 14.2874 6.34946
C -2.95787 10.2487 16.803
C 13.5482 10.2487 -6.34946
C -2.95787 14.2874 4.10404
C 7.56571 2.67443 7.38017
C -7.56571 -2.67443 17.8337
C 7.56571 -2.67443 -7.38017
C -7.56571 2.67443 3.07333
C 12.8609 14.9425 7.38017
C -2.27056 9.5936 17.8337
C 12.8609 9.5936 -7.38017
C -2.27056 14.9425 3.07333
C 6.80639 8.72257 1.28787
C -6.80639 -8.72257 11.7414
C 6.80639 -8.72257 -1.28787
C -6.80639 8.72257 9.16563
C 12.1015 20.9906 1.28787
C -1.51124 3.54546 11.7414
C 12.1015 3.54546 -1.28787
C -1.51124 20.9906 9.16563
C 8.54108 9.78008 1.97362
C -8.54108 -9.78008 12.4271
C 8.54108 -9.78008 -1.97362
C -8.54108 9.78008 8.47988
C 13.8362 22.0481 1.97362
C -3.24593 2.48796 12.4271
C 13.8362 2.48796 -1.97362
C -3.24593 22.0481 8.47988
C 7.54241 10.7149 1.92972
C -7.54241 -10.7149 12.3832
C 7.54241 -10.7149 -1.92972
C -7.54241 10.7149 8.52378
C 12.8376 22.9829 1.92972
C -2.24726 1.55313 12.3832
C 12.8376 1.55313 -1.92972
C -2.24726 22.9829 8.52378
C 5.16701 10.5554 1.23769
C -5.16701 -10.5554 11.6912
C 5.16701 -10.5554 -1.23769
C -5.16701 10.5554 9.21581
C 10.4622 22.8235 1.23769
C 0.128143 1.71262 11.6912
C 10.4622 1.71262 -1.23769
C 0.128143 22.8235 9.21581
C 4.51253 11.2253 2.48793
C -4.51253 -11.2253 12.9414
C 4.51253 -11.2253 -2.48793
C -4.51253 11.2253 7.96557
C 9.80768 23.4933 2.48793
C 0.782623 1.04278 12.9414
C 9.80768 1.04278 -2.48793
C 0.782623 23.4933 7.96557
C 3.91206 10.4573 3.43293
C -3.91206 -10.4573 13.8864
C 3.91206 -10.4573 -3.43293
C -3.91206 10.4573 7.02057
C 9.20721 22.7253 3.43293
C 1.38309 1.81076 13.8864
C 9.20721 1.81076 -3.43293
C 1.38309 22.7253 7.02057
C 3.35183 11.0903 4.53682
C -3.35183 -11.0903 14.9903
C 3.35183 -11.0903 -4.53682
C -3.35183 11.0903 5.91668
C 8.64698 23.3583 4.53682
C 1.94332 1.17773 14.9903
C 8.64698 1.17773 -4.53682
C 1.94332 23.3583 5.91668
C 8.59721 0.184021 4.64554
C -8.59721 -0.184021 15.099
C 8.59721 -0.184021 -4.64554
C -8.59721 0.184021 5.80796
C 13.8924 12.4521 4.64554
C -3.30206 12.084 15.099
C 13.8924 12.084 -4.64554
C -3.30206 12.4521 5.80796
C 9.19238 0.92501 3.67336
C -9.19238 -0.92501 14.1269
C 9.19238 -0.92501 -3.67336
C -9.19238 0.92501 6.78014
C 14.4875 13.193 3.67336
C -3.89723 11.343 14.1269
C 14.4875 11.343 -3.67336
C -3.89723 13.193 6.78014
C 9.80979 0.341051 2.59247
C -9.80979 -0.341051 13.046
C 9.80979 -0.341051 -2.59247
C -9.80979 0.341051 7.86103
C 15.1049 12.6091 2.59247
C -4.51464 11.927 13.046
C 15.1049 11.927 -2.59247
C -4.51464 12.6091 7.86103
N 2.82443 5.0029 8.32726
N -2.82443 -5.0029 18.7808
N 2.82443 -5.0029 -8.32726
N -2.82443 5.0029 2.12624
N 8.11958 17.2709 8.32726
N 2.47072 7.26513 18.7808
N 8.11958 7.26513 -8.32726
N 2.47072 17.2709 2.12624
N 4.52735 3.56018 8.37534
N -4.52735 -3.56018 18.8288
N 4.52735 -3.56018 -8.37534
N -4.52735 3.56018 2.07816
N 9.8225 15.8282 8.37534
N 0.767797 8.70785 18.8288
N 9.8225 8.70785 -8.37534
N 0.767797 15.8282 2.07816
N 8.08993 8.52628 1.5952
N -8.08993 -8.52628 12.0487
N 8.08993 -8.52628 -1.5952
N -8.08993 8.52628 8.8583
N 13.3851 20.7943 1.5952
N -2.79478 3.74175 12.0487
N 13.3851 3.74175 -1.5952
N -2.79478 20.7943 8.8583
N 6.45691 9.98127 1.47603
N -6.45691 -9.98127 11.9295
N 6.45691 -9.98127 -1.47603
N -6.45691 9.98127 8.97747
N 11.7521 22.2493 1.47603
N -1.16176 2.28676 11.9295
N 11.7521 2.28676 -1.47603
N -1.16176 22.2493 8.97747
O 0.83028 5.63348 11.0723
O -0.83028 -5.63348 21.5258
O 0.83028 -5.63348 -11.0723
O -0.83028 5.63348 -0.618847
O 6.12543 17.9015 11.0723
O 4.46487 6.63455 21.5258
O 6.12543 6.63455 -11.0723
O 4.46487 17.9015 -0.618847
O 2.74183 6.68363 11.3145
O -2.74183 -6.68363 21.768
O 2.74183 -6.68363 -11.3145
O -2.74183 6.68363 -0.86095
O 8.03698 18.9517 11.3145
O 2.55332 5.58441 21.768
O 8.03698 5.58441 -11.3145
O 2.55332 18.9517 -0.86095
O 4.60678 4.5269 12.1783
O -4.60678 -4.5269 22.6318
O 4.60678 -4.5269 -12.1783
O -4.60678 4.5269 -1.72483
O 9.90193 16.7949 12.1783
O 0.688369 7.74113 22.6318
O 9.90193 7.74113 -12.1783
O 0.688369 16.7949 -1.72483
O 5.24961 6.14138 13.5059
O -5.24961 -6.14138 23.9594
O 5.24961 -6.14138 -13.5059
O -5.24961 6.14138 -3.05242
O 10.5448 18.4094 13.5059
O 0.0455383 6.12666 23.9594
O 10.5448 6.12666 -13.5059
O 0.0455383 18.4094 -3.05242
