20
C 2 2 21
Ni 4.91648 17.3428 26.0298
Ni -4.91648 -17.3428 57.2653
Ni 4.91648 -17.3428 -26.0298
Ni -4.91648 17.3428 5.20571
Ni 11.197 28.2211 26.0298
Ni 1.36407 -6.46461 57.2653
Ni 11.197 -6.46461 -26.0298
Ni 1.36407 28.2211 5.20571
Ni 6.28055 19.7055 46.8532
Ni -6.28055 -19.7055 78.0887
Ni 12.5611 30.5837 46.8532
Ni 0 -8.82725 78.0887
Ni 6.55784 17.9703 36.4412
Ni -6.55784 -17.9703 67.6767
Ni 6.55784 -17.9703 -36.4412
Ni -6.55784 17.9703 -5.20571
Ni 12.8384 28.8485 36.4412
Ni -0.277286 -7.09206 67.6767
Ni 12.8384 -7.09206 -36.4412
Ni -0.277286 28.8485 -5.20571
Ni 6.28055 18.4506 15.6177
Ni -6.28055 -18.4506 46.8532
Ni 12.5611 29.3288 15.6177
Ni 0 -7.57234 46.8532
H 7.07692 13.0495 27.7559
H -7.07692 -13.0495 58.9914
H 7.07692 -13.0495 -27.7559
H -7.07692 13.0495 3.47963
H 13.3575 23.9278 27.7559
H -0.796374 -2.17129 58.9914
H 13.3575 -2.17129 -27.7559
H -0.796374 23.9278 3.47963
H 8.07867 14.071 27.1124
H -8.07867 -14.071 58.3479
H 8.07867 -14.071 -27.1124
H -8.07867 14.071 4.12309
H 14.3592 24.9492 27.1124
H -1.79812 -3.19276 58.3479
H 14.3592 -3.19276 -27.1124
H -1.79812 24.9492 4.12309
H 9.52634 18.5974 32.4974
H -9.52634 -18.5974 63.7329
H 9.52634 -18.5974 -32.4974
H -9.52634 18.5974 -1.26191
H 15.8069 29.4757 32.4974
H -3.24579 -7.71919 63.7329
H 15.8069 -7.71919 -32.4974
H -3.24579 29.4757 -1.26191
H 4.00511 6.60635 33.3033
H -4.00511 -6.60635 64.5388
H 4.00511 -6.60635 -33.3033
H -4.00511 6.60635 -2.06779
H 10.2857 17.4846 33.3033
H 2.27544 4.27188 64.5388
H 10.2857 4.27188 -33.3033
H 2.27544 17.4846 -2.06779
H 10.4992 19.4601 29.4613
H -10.4992 -19.4601 60.6968
H 10.4992 -19.4601 -29.4613
H -10.4992 19.4601 1.77418
H 16.7797 30.3383 29.4613
H -4.21865 -8.58184 60.6968
H 16.7797 -8.58184 -29.4613
H -4.21865 30.3383 1.77418
H 4.97859 8.61882 28.0932
H -4.97859 -8.61882 59.3287
H 4.97859 -8.61882 -28.0932
H -4.97859 8.61882 3.14229
H 11.2591 19.4971 28.0932
H 1.30196 2.25941 59.3287
H 11.2591 2.25941 -28.0932
H 1.30196 19.4971 3.14229
H 6.43882 20.0486 26.1254
H -6.43882 -20.0486 57.3609
H 6.43882 -20.0486 -26.1254
H -6.43882 20.0486 5.11013
H 12.7194 30.9268 26.1254
H -0.15827 -9.17035 57.3609
H 12.7194 -9.17035 -26.1254
H -0.15827 30.9268 5.11013
H 7.62522 21.3398 27.5934
H -7.62522 -21.3398 58.8289
H 7.62522 -21.3398 -27.5934
H -7.62522 21.3398 3.64206
H 13.9058 32.2181 27.5934
H -1.34467 -10.4616 58.8289
H 13.9058 -10.4616 -27.5934
H -1.34467 32.2181 3.64206
H 6.61719 18.8128 30.4983
H -6.61719 -18.8128 61.7338
H 6.61719 -18.8128 -30.4983
H -6.61719 18.8128 0.737158
H 12.8977 29.691 30.4983
H -0.336637 -7.93458 61.7338
H 12.8977 -7.93458 -30.4983
H -0.336637 29.691 0.737158
H 5.46471 17.5825 28.9865
H -5.46471 -17.5825 60.222
H 5.46471 -17.5825 -28.9865
H -5.46471 17.5825 2.24896
H 11.7453 28.4607 28.9865
H 0.815843 -6.70425 60.222
H 11.7453 -6.70425 -28.9865
H 0.815843 28.4607 2.24896
H 8.62822 21.6673 29.7237
H -8.62822 -21.6673 60.9592
H 8.62822 -21.6673 -29.7237
H -8.62822 21.6673 1.5118
H 14.9088 32.5455 29.7237
H -2.34767 -10.789 60.9592
H 14.9088 -10.789 -29.7237
H -2.34767 32.5455 1.5118
H 8.69542 20.4217 30.6733
H -8.69542 -20.4217 61.9088
H 8.69542 -20.4217 -30.6733
H -8.69542 20.4217 0.562239
H 14.976 31.2999 30.6733
H -2.41487 -9.54347 61.9088
H 14.976 -9.54347 -30.6733
H -2.41487 31.2999 0.562239
H 6.67246 21.119 31.6915
H -6.67246 -21.119 62.927
H 6.67246 -21.119 -31.6915
H -6.67246 21.119 -0.456038
H 12.953 31.9972 31.6915
H -0.391906 -10.2408 62.927
H 12.953 -10.2408 -31.6915
H -0.391906 31.9972 -0.456038
H 6.29562 18.9999 39.3005
H -6.29562 -18.9999 70.536
H 6.29562 -18.9999 -39.3005
H -6.29562 18.9999 -8.06501
H 12.5762 29.8781 39.3005
H -0.0150733 -8.12169 70.536
H 12.5762 -8.12169 -39.3005
H -0.0150733 29.8781 -8.06501
H 4.73239 19.6798 40.7811
H -4.73239 -19.6798 72.0166
H 4.73239 -19.6798 -40.7811
H -4.73239 19.6798 -9.54557
H 11.0129 30.558 40.7811
H 1.54816 -8.80158 72.0166
H 11.0129 -8.80158 -40.7811
H 1.54816 30.558 -9.54557
H 1.89798 18.5213 38.1948
H -1.89798 -18.5213 69.4303
H 1.89798 -18.5213 -38.1948
H -1.89798 18.5213 -6.95927
H 8.17853 29.3995 38.1948
H 4.38257 -7.64304 69.4303
H 8.17853 -7.64304 -38.1948
H 4.38257 29.3995 -6.95927
H 3.55919 17.8327 36.8079
H -3.55919 -17.8327 68.0434
H 3.55919 -17.8327 -36.8079
H -3.55919 17.8327 -5.57241
H 9.83974 28.7109 36.8079
H 2.72136 -6.95445 68.0434
H 9.83974 -6.95445 -36.8079
H 2.72136 28.7109 -5.57241
H 2.30371 20.5207 41.0747
H -2.30371 -20.5207 72.3102
H 2.30371 -20.5207 -41.0747
H -2.30371 20.5207 -9.83918
H 8.58426 31.3989 41.0747
H 3.97684 -9.64246 72.3102
H 8.58426 -9.64246 -41.0747
H 3.97684 31.3989 -9.83918
H 1.20775 19.8756 40.1501
H -1.20775 -19.8756 71.3856
H 1.20775 -19.8756 -40.1501
H -1.20775 19.8756 -8.91461
H 7.4883 30.7538 40.1501
H 5.0728 -8.99738 71.3856
H 7.4883 -8.99738 -40.1501
H 5.0728 30.7538 -8.91461
H 7.83185 6.94249 41.1934
H -7.83185 -6.94249 72.4289
H 7.83185 -6.94249 -41.1934
H -7.83185 6.94249 -9.95788
H 14.1124 17.8207 41.1934
H -1.5513 3.93574 72.4289
H 14.1124 3.93574 -41.1934
H -1.5513 17.8207 -9.95788
H 6.79493 13.8795 29.4426
H -6.79493 -13.8795 60.6781
H 6.79493 -13.8795 -29.4426
H -6.79493 13.8795 1.79292
H 13.0755 24.7578 29.4426
H -0.514377 -3.0013 60.6781
H 13.0755 -3.0013 -29.4426
H -0.514377 24.7578 1.79292
H 8.07302 16.3522 32.9472
H -8.07302 -16.3522 64.1827
H 8.07302 -16.3522 -32.9472
H -8.07302 16.3522 -1.71171
H 14.3536 27.2304 32.9472
H -1.79247 -5.47393 64.1827
H 14.3536 -5.47393 -32.9472
H -1.79247 27.2304 -1.71171
H 9.98796 17.8392 27.431
H -9.98796 -17.8392 58.6665
H 9.98796 -17.8392 -27.431
H -9.98796 17.8392 3.80448
H 16.2685 28.7174 27.431
H -3.70741 -6.96098 58.6665
H 16.2685 -6.96098 -27.431
H -3.70741 28.7174 3.80448
H 7.04552 7.53861 30.767
H -7.04552 -7.53861 62.0025
H 7.04552 -7.53861 -30.767
H -7.04552 7.53861 0.468533
H 13.3261 18.4168 30.767
H -0.764971 3.33962 62.0025
H 13.3261 3.33962 -30.767
H -0.764971 18.4168 0.468533
H 1.48221 19.9811 48.5793
H -1.48221 -19.9811 79.8148
H 1.48221 -19.9811 -48.5793
H -1.48221 19.9811 -17.3438
H 7.76276 30.8594 48.5793
H 4.79834 -9.1029 79.8148
H 7.76276 -9.1029 -48.5793
H 4.79834 30.8594 -17.3438
H 1.86595 18.6029 47.9359
H -1.86595 -18.6029 79.1714
H 1.86595 -18.6029 -47.9359
H -1.86595 18.6029 -16.7004
H 8.1465 29.4811 47.9359
H 4.4146 -7.72463 79.1714
H 8.1465 -7.72463 -47.9359
H 4.4146 29.4811 -16.7004
H 5.06212 15.0859 53.3209
H -5.06212 -15.0859 84.5564
H 5.06212 -15.0859 -53.3209
H -5.06212 15.0859 -22.0854
H 11.3427 25.9642 53.3209
H 1.21843 -4.2077 84.5564
H 11.3427 -4.2077 -53.3209
H 1.21843 25.9642 -22.0854
H 9.99926 4.10653 54.1267
H -9.99926 -4.10653 85.3622
H 9.99926 -4.10653 -54.1267
H -9.99926 4.10653 -22.8912
H 16.2798 14.9848 54.1267
H -3.71871 6.7717 85.3622
H 16.2798 6.7717 -54.1267
H -3.71871 14.9848 -22.8912
H 5.32277 13.8121 50.2848
H -5.32277 -13.8121 81.5203
H 5.32277 -13.8121 -50.2848
H -5.32277 13.8121 -19.0493
H 11.6033 24.6903 50.2848
H 0.957784 -2.93386 81.5203
H 11.6033 -2.93386 -50.2848
H 0.957784 24.6903 -19.0493
H 11.2554 2.25723 48.9167
H -11.2554 -2.25723 80.1522
H 11.2554 -2.25723 -48.9167
H -11.2554 2.25723 -17.6812
H 17.5359 13.1355 48.9167
H -4.97482 8.621 80.1522
H 17.5359 8.621 -48.9167
H -4.97482 13.1355 -17.6812
H 7.86262 17.0342 46.9488
H -7.86262 -17.0342 78.1843
H 7.86262 -17.0342 -46.9488
H -7.86262 17.0342 -15.7133
H 14.1432 27.9125 46.9488
H -1.58207 -6.15599 78.1843
H 14.1432 -6.15599 -46.9488
H -1.58207 27.9125 -15.7133
H 8.38767 15.3611 48.4169
H -8.38767 -15.3611 79.6524
H 8.38767 -15.3611 -48.4169
H -8.38767 15.3611 -17.1814
H 14.6682 26.2394 48.4169
H -2.10712 -4.48292 79.6524
H 14.6682 -4.48292 -48.4169
H -2.10712 26.2394 -17.1814
H 6.70323 17.4976 51.3218
H -6.70323 -17.4976 82.5573
H 6.70323 -17.4976 -51.3218
H -6.70323 17.4976 -20.0863
H 12.9838 28.3759 51.3218
H -0.422681 -6.6194 82.5573
H 12.9838 -6.6194 -51.3218
H -0.422681 28.3759 -20.0863
H 6.21398 19.1109 49.81
H -6.21398 -19.1109 81.0455
H 6.21398 -19.1109 -49.81
H -6.21398 19.1109 -18.5745
H 12.4945 29.9891 49.81
H 0.0665738 -8.23264 81.0455
H 12.4945 -8.23264 -49.81
H 0.0665738 29.9891 -18.5745
H 8.16974 14.3288 50.5472
H -8.16974 -14.3288 81.7827
H 8.16974 -14.3288 -50.5472
H -8.16974 14.3288 -19.3117
H 14.4503 25.207 50.5472
H -1.88919 -3.45057 81.7827
H 14.4503 -3.45057 -50.5472
H -1.88919 25.207 -19.3117
H 7.05745 14.8934 51.4967
H -7.05745 -14.8934 82.7322
H 7.05745 -14.8934 -51.4967
H -7.05745 14.8934 -20.2612
H 13.338 25.7716 51.4967
H -0.776904 -4.01515 82.7322
H 13.338 -4.01515 -51.4967
H -0.776904 25.7716 -20.2612
H 8.67281 16.2967 52.515
H -8.67281 -16.2967 83.7505
H 8.67281 -16.2967 -52.515
H -8.67281 16.2967 -21.2795
H 14.9534 27.1749 52.515
H -2.39226 -5.41845 83.7505
H 14.9534 -5.41845 -52.515
H -2.39226 27.1749 -21.2795
H 7.02605 17.6826 60.124
H -7.02605 -17.6826 91.3595
H 7.02605 -17.6826 -60.124
H -7.02605 17.6826 -28.8885
H 13.3066 28.5608 60.124
H -0.745501 -6.80433 91.3595
H 13.3066 -6.80433 -60.124
H -0.745501 28.5608 -28.8885
H 8.39647 18.6964 61.6045
H -8.39647 -18.6964 92.84
H 8.39647 -18.6964 -61.6045
H -8.39647 18.6964 -30.369
H 14.677 29.5746 61.6045
H -2.11592 -7.81818 92.84
H 14.677 -7.81818 -61.6045
H -2.11592 29.5746 -30.369
H 8.81036 21.7304 59.0182
H -8.81036 -21.7304 90.2537
H 8.81036 -21.7304 -59.0182
H -8.81036 21.7304 -27.7827
H 15.0909 32.6086 59.0182
H -2.52981 -10.8521 90.2537
H 15.0909 -10.8521 -59.0182
H -2.52981 32.6086 -27.7827
H 7.38341 20.636 57.6314
H -7.38341 -20.636 88.8669
H 7.38341 -20.636 -57.6314
H -7.38341 20.636 -26.3959
H 13.664 31.5142 57.6314
H -1.10286 -9.75777 88.8669
H 13.664 -9.75777 -57.6314
H -1.10286 31.5142 -26.3959
H 10.339 20.3793 61.8981
H -10.339 -20.3793 93.1336
H 10.339 -20.3793 -61.8981
H -10.339 20.3793 -30.6626
H 16.6196 31.2575 61.8981
H -4.05849 -9.50105 93.1336
H 16.6196 -9.50105 -61.8981
H -4.05849 31.2575 -30.6626
H 10.3284 21.6509 60.9736
H -10.3284 -21.6509 92.2091
H 10.3284 -21.6509 -60.9736
H -10.3284 21.6509 -29.7381
H 16.6089 32.5292 60.9736
H -4.04781 -10.7727 92.2091
H 16.6089 -10.7727 -60.9736
H -4.04781 32.5292 -29.7381
H 8.377 0.62441 62.0168
H -8.377 -0.62441 93.2523
H 8.377 -0.62441 -62.0168
H -8.377 0.62441 -30.7813
H 14.6575 11.5026 62.0168
H -2.09645 10.2538 93.2523
H 14.6575 10.2538 -62.0168
H -2.09645 11.5026 -30.7813
H 2.34202 19.8103 50.266
H -2.34202 -19.8103 81.5015
H 2.34202 -19.8103 -50.266
H -2.34202 19.8103 -19.0305
H 8.62257 30.6886 50.266
H 3.93853 -8.93211 81.5015
H 8.62257 -8.93211 -50.266
H 3.93853 30.6886 -19.0305
H 3.84432 17.4672 53.7707
H -3.84432 -17.4672 85.0062
H 3.84432 -17.4672 -53.7707
H -3.84432 17.4672 -22.5352
H 10.1249 28.3454 53.7707
H 2.43623 -6.58894 85.0062
H 10.1249 -6.58894 -53.7707
H 2.43623 28.3454 -22.5352
H 4.17468 15.0653 48.2545
H -4.17468 -15.0653 79.49
H 4.17468 -15.0653 -48.2545
H -4.17468 15.0653 -17.019
H 10.4552 25.9435 48.2545
H 2.10587 -4.18703 79.49
H 10.4552 -4.18703 -48.2545
H 2.10587 25.9435 -17.019
H 9.28642 1.00732 51.5904
H -9.28642 -1.00732 82.8259
H 9.28642 -1.00732 -51.5904
H -9.28642 1.00732 -20.3549
H 15.567 11.8856 51.5904
H -3.00587 9.87091 82.8259
H 15.567 9.87091 -51.5904
H -3.00587 11.8856 -20.3549
H 10.2825 21.3605 6.93241
H -10.2825 -21.3605 38.1679
H 10.2825 -21.3605 -6.93241
H -10.2825 21.3605 24.3031
H 16.5631 32.2387 6.93241
H -4.00197 -10.4823 38.1679
H 16.5631 -10.4823 -6.93241
H -4.00197 32.2387 24.3031
H 8.89703 21.7173 6.28896
H -8.89703 -21.7173 37.5245
H 8.89703 -21.7173 -6.28896
H -8.89703 21.7173 24.9465
H 15.1776 32.5955 6.28896
H -2.61648 -10.8391 37.5245
H 15.1776 -10.8391 -6.28896
H -2.61648 32.5955 24.9465
H 4.25319 20.7078 11.674
H -4.25319 -20.7078 42.9095
H 4.25319 -20.7078 -11.674
H -4.25319 20.7078 19.5615
H 10.5337 31.586 11.674
H 2.02736 -9.82957 42.9095
H 10.5337 -9.82957 -11.674
H 2.02736 31.586 19.5615
H 4.83728 0.165349 12.4798
H -4.83728 -0.165349 43.7153
H 4.83728 -0.165349 -12.4798
H -4.83728 0.165349 18.7557
H 11.1178 11.0436 12.4798
H 1.44327 10.7129 43.7153
H 11.1178 10.7129 -12.4798
H 1.44327 11.0436 18.7557
H 3.01969 21.119 8.63787
H -3.01969 -21.119 39.8734
H 3.01969 -21.119 -8.63787
H -3.01969 21.119 22.5976
H 9.30024 31.9972 8.63787
H 3.26086 -10.2408 39.8734
H 9.30024 -10.2408 -8.63787
H 3.26086 31.9972 22.5976
H 2.60768 0.00217565 7.26975
H -2.60768 -0.00217565 38.5053
H 2.60768 -0.00217565 -7.26975
H -2.60768 0.00217565 23.9657
H 8.88823 10.8804 7.26975
H 3.67287 10.8761 38.5053
H 8.88823 10.8761 -7.26975
H 3.67287 10.8804 23.9657
H 4.54021 17.3084 5.30191
H -4.54021 -17.3084 36.5374
H 4.54021 -17.3084 -5.30191
H -4.54021 17.3084 25.9336
H 10.8208 28.1866 5.30191
H 1.74034 -6.43012 36.5374
H 10.8208 -6.43012 -5.30191
H 1.74034 28.1866 25.9336
H 2.82876 17.6902 6.76998
H -2.82876 -17.6902 38.0055
H 2.82876 -17.6902 -6.76998
H -2.82876 17.6902 24.4655
H 9.10931 28.5684 6.76998
H 3.45179 -6.81195 38.0055
H 9.10931 -6.81195 -6.76998
H 3.45179 28.5684 24.4655
H 5.52123 18.0807 9.67488
H -5.52123 -18.0807 40.9104
H 5.52123 -18.0807 -9.67488
H -5.52123 18.0807 21.5606
H 11.8018 28.9589 9.67488
H 0.759318 -7.20248 40.9104
H 11.8018 -7.20248 -9.67488
H 0.759318 28.9589 21.5606
H 7.16297 17.6978 8.16309
H -7.16297 -17.6978 39.3986
H 7.16297 -17.6978 -8.16309
H -7.16297 17.6978 23.0724
H 13.4435 28.576 8.16309
H -0.882417 -6.81956 39.3986
H 13.4435 -6.81956 -8.16309
H -0.882417 28.576 23.0724
H 2.04369 18.3951 8.90024
H -2.04369 -18.3951 40.1357
H 2.04369 -18.3951 -8.90024
H -2.04369 18.3951 22.3353
H 8.32424 29.2733 8.90024
H 4.23686 -7.51686 40.1357
H 8.32424 -7.51686 -8.90024
H 4.23686 29.2733 22.3353
H 3.08877 19.0761 9.8498
H -3.08877 -19.0761 41.0853
H 3.08877 -19.0761 -9.8498
H -3.08877 19.0761 21.3857
H 9.36932 29.9543 9.8498
H 3.19178 -8.19783 41.0853
H 9.36932 -8.19783 -9.8498
H 3.19178 29.9543 21.3857
H 3.49638 16.9755 10.8681
H -3.49638 -16.9755 42.1036
H 3.49638 -16.9755 -10.8681
H -3.49638 16.9755 20.3674
H 9.77693 27.8537 10.8681
H 2.78417 -6.09725 42.1036
H 9.77693 -6.09725 -10.8681
H 2.78417 27.8537 20.3674
H 5.51998 17.7087 18.477
H -5.51998 -17.7087 49.7125
H 5.51998 -17.7087 -18.477
H -5.51998 17.7087 12.7585
H 11.8005 28.5869 18.477
H 0.760575 -6.83044 49.7125
H 11.8005 -6.83044 -18.477
H 0.760575 28.5869 12.7585
H 5.71279 16.0149 19.9576
H -5.71279 -16.0149 51.1931
H 5.71279 -16.0149 -19.9576
H -5.71279 16.0149 11.2779
H 11.9933 26.8932 19.9576
H 0.567762 -5.1367 51.1931
H 11.9933 -5.1367 -19.9576
H 0.567762 26.8932 11.2779
H 8.13331 14.1395 17.3713
H -8.13331 -14.1395 48.6068
H 8.13331 -14.1395 -17.3713
H -8.13331 14.1395 13.8642
H 14.4139 25.0178 17.3713
H -1.85276 -3.26129 48.6068
H 14.4139 -3.26129 -17.3713
H -1.85276 25.0178 13.8642
H 7.89905 15.9225 15.9845
H -7.89905 -15.9225 47.22
H 7.89905 -15.9225 -15.9845
H -7.89905 15.9225 15.251
H 14.1796 26.8007 15.9845
H -1.6185 -5.04424 47.22
H 14.1796 -5.04424 -15.9845
H -1.6185 26.8007 15.251
H 6.1989 13.4912 20.2512
H -6.1989 -13.4912 51.4867
H 6.1989 -13.4912 -20.2512
H -6.1989 13.4912 10.9843
H 12.4795 24.3694 20.2512
H 0.0816472 -2.61295 51.4867
H 12.4795 -2.61295 -20.2512
H 0.0816472 24.3694 10.9843
H 7.30554 12.8646 19.3267
H -7.30554 -12.8646 50.5622
H 7.30554 -12.8646 -19.3267
H -7.30554 12.8646 11.9088
H 13.5861 23.7428 19.3267
H -1.02499 -1.98636 50.5622
H 13.5861 -1.98636 -19.3267
H -1.02499 23.7428 11.9088
H 2.63281 3.31133 20.3699
H -2.63281 -3.31133 51.6054
H 2.63281 -3.31133 -20.3699
H -2.63281 3.31133 10.8656
H 8.91336 14.1896 20.3699
H 3.64774 7.5669 51.6054
H 8.91336 7.5669 -20.3699
H 3.64774 14.1896 10.8656
H 9.70471 20.7013 8.61912
H -9.70471 -20.7013 39.8546
H 9.70471 -20.7013 -8.61912
H -9.70471 20.7013 22.6164
H 15.9853 31.5795 8.61912
H -3.42416 -9.82304 39.8546
H 15.9853 -9.82304 -8.61912
H -3.42416 31.5795 22.6164
H 6.92431 20.5718 12.1237
H -6.92431 -20.5718 43.3592
H 6.92431 -20.5718 -12.1237
H -6.92431 20.5718 19.1118
H 13.2049 31.4501 12.1237
H -0.643756 -9.69359 43.3592
H 13.2049 -9.69359 -12.1237
H -0.643756 31.4501 19.1118
H 4.67901 21.4867 6.60756
H -4.67901 -21.4867 37.8431
H 4.67901 -21.4867 -6.60756
H -4.67901 21.4867 24.6279
H 10.9596 32.3649 6.60756
H 1.60154 -10.6084 37.8431
H 10.9596 -10.6084 -6.60756
H 1.60154 32.3649 24.6279
H 2.50971 2.33229 9.94351
H -2.50971 -2.33229 41.179
H 2.50971 -2.33229 -9.94351
H -2.50971 2.33229 21.292
H 8.79026 13.2105 9.94351
H 3.77084 8.54594 41.179
H 8.79026 8.54594 -9.94351
H 3.77084 13.2105 21.292
C 7.92605 15.384 29.3008
C -7.92605 -15.384 60.5363
C 7.92605 -15.384 -29.3008
C -7.92605 15.384 1.93473
C 14.2066 26.2622 29.3008
C -1.6455 -4.50576 60.5363
C 14.2066 -4.50576 -29.3008
C -1.6455 26.2622 1.93473
C 8.64078 16.6132 31.1474
C -8.64078 -16.6132 62.3829
C 8.64078 -16.6132 -31.1474
C -8.64078 16.6132 0.0880841
C 14.9213 27.4915 31.1474
C -2.36023 -5.735 62.3829
C 14.9213 -5.735 -31.1474
C -2.36023 27.4915 0.0880841
C 9.353 17.1006 29.0778
C -9.353 -17.1006 60.3133
C 9.353 -17.1006 -29.0778
C -9.353 17.1006 2.15775
C 15.6335 27.9788 29.0778
C -3.07245 -6.22235 60.3133
C 15.6335 -6.22235 -29.0778
C -3.07245 27.9788 2.15775
C 7.17992 13.9676 27.461
C -7.17992 -13.9676 58.6965
C 7.17992 -13.9676 -27.461
C -7.17992 13.9676 3.7745
C 13.4605 24.8459 27.461
C -0.899375 -3.08942 58.6965
C 13.4605 -3.08942 -27.461
C -0.899375 24.8459 3.7745
C 6.219 14.7313 26.612
C -6.219 -14.7313 57.8475
C 6.219 -14.7313 -26.612
C -6.219 14.7313 4.62348
C 12.4996 25.6095 26.612
C 0.0615494 -3.85307 57.8475
C 12.4996 -3.85307 -26.612
C 0.0615494 25.6095 4.62348
C 9.40889 17.8501 33.1071
C -9.40889 -17.8501 64.3426
C 9.40889 -17.8501 -33.1071
C -9.40889 17.8501 -1.87163
C 15.6894 28.7283 33.1071
C -3.12834 -6.97186 64.3426
C 15.6894 -6.97186 -33.1071
C -3.12834 28.7283 -1.87163
C 8.77456 18.3418 34.3859
C -8.77456 -18.3418 65.6214
C 8.77456 -18.3418 -34.3859
C -8.77456 18.3418 -3.15041
C 15.0551 29.22 34.3859
C -2.49401 -7.46355 65.6214
C 15.0551 -7.46355 -34.3859
C -2.49401 29.22 -3.15041
C 4.69346 8.03792 28.8154
C -4.69346 -8.03792 60.0509
C 4.69346 -8.03792 -28.8154
C -4.69346 8.03792 2.42013
C 10.974 18.9162 28.8154
C 1.58709 2.84031 60.0509
C 10.974 2.84031 -28.8154
C 1.58709 18.9162 2.42013
C 5.93261 7.42983 29.4857
C -5.93261 -7.42983 60.7212
C 5.93261 -7.42983 -29.4857
C -5.93261 7.42983 1.74981
C 12.2132 18.3081 29.4857
C 0.347942 3.4484 60.7212
C 12.2132 3.4484 -29.4857
C 0.347942 18.3081 1.74981
C 6.4765 19.7875 27.0156
C -6.4765 -19.7875 58.2511
C 6.4765 -19.7875 -27.0156
C -6.4765 19.7875 4.21992
C 12.7571 30.6657 27.0156
C -0.195953 -8.90927 58.2511
C 12.7571 -8.90927 -27.0156
C -0.195953 30.6657 4.21992
C 7.19563 20.574 27.8989
C -7.19563 -20.574 59.1344
C 7.19563 -20.574 -27.8989
C -7.19563 20.574 3.33658
C 13.4762 31.4522 27.8989
C -0.915076 -9.69577 59.1344
C 13.4762 -9.69577 -27.8989
C -0.915076 31.4522 3.33658
C 7.2779 20.2292 29.2296
C -7.2779 -20.2292 60.4651
C 7.2779 -20.2292 -29.2296
C -7.2779 20.2292 2.00594
C 13.5585 31.1074 29.2296
C -0.997351 -9.35093 60.4651
C 13.5585 -9.35093 -29.2296
C -0.997351 31.1074 2.00594
C 6.60149 19.0837 29.6106
C -6.60149 -19.0837 60.8461
C 6.60149 -19.0837 -29.6106
C -6.60149 19.0837 1.62487
C 12.882 29.9619 29.6106
C -0.320936 -8.20545 60.8461
C 12.882 -8.20545 -29.6106
C -0.320936 29.9619 1.62487
C 5.90811 18.3461 28.6936
C -5.90811 -18.3461 59.9291
C 5.90811 -18.3461 -28.6936
C -5.90811 18.3461 2.54194
C 12.1887 29.2244 28.6936
C 0.372437 -7.4679 59.9291
C 12.1887 -7.4679 -28.6936
C 0.372437 29.2244 2.54194
C 8.0906 21.0211 30.211
C -8.0906 -21.0211 61.4465
C 8.0906 -21.0211 -30.211
C -8.0906 21.0211 1.02452
C 14.3712 31.8993 30.211
C -1.81005 -10.1429 61.4465
C 14.3712 -10.1429 -30.211
C -1.81005 31.8993 1.02452
C 5.39876 18.9085 39.0687
C -5.39876 -18.9085 70.3042
C 5.39876 -18.9085 -39.0687
C -5.39876 18.9085 -7.83324
C 11.6793 29.7868 39.0687
C 0.881789 -8.03031 70.3042
C 11.6793 -8.03031 -39.0687
C 0.881789 29.7868 -7.83324
C 4.46421 19.3328 39.9633
C -4.46421 -19.3328 71.1988
C 4.46421 -19.3328 -39.9633
C -4.46421 19.3328 -8.72782
C 10.7448 30.211 39.9633
C 1.81634 -8.45456 71.1988
C 10.7448 -8.45456 -39.9633
C 1.81634 30.211 -8.72782
C 3.11892 19.2501 39.6553
C -3.11892 -19.2501 70.8908
C 3.11892 -19.2501 -39.6553
C -3.11892 19.2501 -8.41984
C 9.39947 30.1283 39.6553
C 3.16163 -8.37189 70.8908
C 9.39947 -8.37189 -39.6553
C 3.16163 30.1283 -8.41984
C 2.78731 18.6431 38.4384
C -2.78731 -18.6431 69.6739
C 2.78731 -18.6431 -38.4384
C -2.78731 18.6431 -7.20291
C 9.06786 29.5213 38.4384
C 3.49324 -7.76488 69.6739
C 9.06786 -7.76488 -38.4384
C 3.49324 29.5213 -7.20291
C 3.79534 18.233 37.6125
C -3.79534 -18.233 68.848
C 3.79534 -18.233 -37.6125
C -3.79534 18.233 -6.37704
C 10.0759 29.1112 37.6125
C 2.48521 -7.35477 68.848
C 10.0759 -7.35477 -37.6125
C 2.48521 29.1112 -6.37704
C 2.0305 19.7016 40.6305
C -2.0305 -19.7016 71.866
C 2.0305 -19.7016 -40.6305
C -2.0305 19.7016 -9.39501
C 8.31105 30.5798 40.6305
C 4.25005 -8.82333 71.866
C 8.31105 -8.82333 -40.6305
C 4.25005 30.5798 -9.39501
C 3.07935 18.0785 50.1242
C -3.07935 -18.0785 81.3597
C 3.07935 -18.0785 -50.1242
C -3.07935 18.0785 -18.8887
C 9.3599 28.9568 50.1242
C 3.2012 -7.2003 81.3597
C 9.3599 -7.2003 -50.1242
C 3.2012 28.9568 -18.8887
C 3.78654 16.8449 51.9709
C -3.78654 -16.8449 83.2064
C 3.78654 -16.8449 -51.9709
C -3.78654 16.8449 -20.7354
C 10.0671 27.7232 51.9709
C 2.49401 -5.96671 83.2064
C 10.0671 -5.96671 -51.9709
C 2.49401 27.7232 -20.7354
C 3.85249 15.9845 49.9012
C -3.85249 -15.9845 81.1367
C 3.85249 -15.9845 -49.9012
C -3.85249 15.9845 -18.6657
C 10.133 26.8627 49.9012
C 2.42806 -5.10624 81.1367
C 10.133 -5.10624 -49.9012
C 2.42806 26.8627 -18.6657
C 2.22583 19.4329 48.2845
C -2.22583 -19.4329 79.52
C 2.22583 -19.4329 -48.2845
C -2.22583 19.4329 -17.049
C 8.50638 30.3111 48.2845
C 4.05472 -8.55464 79.52
C 8.50638 -8.55464 -48.2845
C 4.05472 30.3111 -17.049
C 3.36763 19.8832 47.4355
C -3.36763 -19.8832 78.671
C 3.36763 -19.8832 -47.4355
C -3.36763 19.8832 -16.2
C 9.64818 30.7615 47.4355
C 2.91292 -9.005 78.671
C 9.64818 -9.005 -47.4355
C 2.91292 30.7615 -16.2
C 4.47364 15.5613 53.9306
C -4.47364 -15.5613 85.1661
C 4.47364 -15.5613 -53.9306
C -4.47364 15.5613 -22.6951
C 10.7542 26.4395 53.9306
C 1.80691 -4.68308 85.1661
C 10.7542 -4.68308 -53.9306
C 1.80691 26.4395 -22.6951
C 5.21662 15.8648 55.2094
C -5.21662 -15.8648 86.4449
C 5.21662 -15.8648 -55.2094
C -5.21662 15.8648 -23.9739
C 11.4972 26.743 55.2094
C 1.06393 -4.98658 86.4449
C 11.4972 -4.98658 -55.2094
C 1.06393 26.743 -23.9739
C 10.8949 2.79462 49.6388
C -10.8949 -2.79462 80.8743
C 10.8949 -2.79462 -49.6388
C -10.8949 2.79462 -18.4033
C 17.1754 13.6728 49.6388
C -4.61432 8.08361 80.8743
C 17.1754 8.08361 -49.6388
C -4.61432 13.6728 -18.4033
C 9.74867 2.02553 50.3091
C -9.74867 -2.02553 81.5446
C 9.74867 -2.02553 -50.3091
C -9.74867 2.02553 -19.0736
C 16.0292 12.9038 50.3091
C -3.46812 8.8527 81.5446
C 16.0292 8.8527 -50.3091
C -3.46812 12.9038 -19.0736
C 7.61768 17.1321 47.839
C -7.61768 -17.1321 79.0745
C 7.61768 -17.1321 -47.839
C -7.61768 17.1321 -16.6035
C 13.8982 28.0104 47.839
C -1.33713 -6.25389 79.0745
C 13.8982 -6.25389 -47.839
C -1.33713 28.0104 -16.6035
C 7.93924 16.1161 48.7224
C -7.93924 -16.1161 79.9579
C 7.93924 -16.1161 -48.7224
C -7.93924 16.1161 -17.4869
C 14.2198 26.9943 48.7224
C -1.65869 -5.23787 79.9579
C 14.2198 -5.23787 -48.7224
C -1.65869 26.9943 -17.4869
C 7.59947 16.2173 50.053
C -7.59947 -16.2173 81.2885
C 7.59947 -16.2173 -50.053
C -7.59947 16.2173 -18.8175
C 13.88 27.0955 50.053
C -1.31892 -5.33904 81.2885
C 13.88 -5.33904 -50.053
C -1.31892 27.0955 -18.8175
C 6.94566 17.3758 50.4341
C -6.94566 -17.3758 81.6696
C 6.94566 -17.3758 -50.4341
C -6.94566 17.3758 -19.1986
C 13.2262 28.254 50.4341
C -0.66511 -6.49757 81.6696
C 13.2262 -6.49757 -50.4341
C -0.66511 28.254 -19.1986
C 6.65361 18.345 49.517
C -6.65361 -18.345 80.7525
C 6.65361 -18.345 -49.517
C -6.65361 18.345 -18.2815
C 12.9342 29.2233 49.517
C -0.373065 -7.46682 80.7525
C 12.9342 -7.46682 -49.517
C -0.373065 29.2233 -18.2815
C 7.87895 15.1175 51.0344
C -7.87895 -15.1175 82.2699
C 7.87895 -15.1175 -51.0344
C -7.87895 15.1175 -19.7989
C 14.1595 25.9957 51.0344
C -1.5984 -4.23925 82.2699
C 14.1595 -4.23925 -51.0344
C -1.5984 25.9957 -19.7989
C 7.39535 18.505 59.8922
C -7.39535 -18.505 91.1277
C 7.39535 -18.505 -59.8922
C -7.39535 18.505 -28.6567
C 13.6759 29.3832 59.8922
C -1.1148 -7.62673 91.1277
C 13.6759 -7.62673 -59.8922
C -1.1148 29.3832 -28.6567
C 8.23003 19.1022 60.7868
C -8.23003 -19.1022 92.0223
C 8.23003 -19.1022 -60.7868
C -8.23003 19.1022 -29.5513
C 14.5106 29.9804 60.7868
C -1.94948 -8.22394 92.0223
C 14.5106 -8.22394 -60.7868
C -1.94948 29.9804 -29.5513
C 8.83108 20.3086 60.4788
C -8.83108 -20.3086 91.7143
C 8.83108 -20.3086 -60.4788
C -8.83108 20.3086 -29.2433
C 15.1116 31.1868 60.4788
C -2.55053 -9.43034 91.7143
C 15.1116 -9.43034 -60.4788
C -2.55053 31.1868 -29.2433
C 8.47121 20.8993 59.2619
C -8.47121 -20.8993 90.4974
C 8.47121 -20.8993 -59.2619
C -8.47121 20.8993 -28.0264
C 14.7518 31.7775 59.2619
C -2.19066 -10.021 90.4974
C 14.7518 -10.021 -59.2619
C -2.19066 31.7775 -28.0264
C 7.61203 20.2313 58.436
C -7.61203 -20.2313 89.6715
C 7.61203 -20.2313 -58.436
C -7.61203 20.2313 -27.2005
C 13.8926 31.1096 58.436
C -1.33148 -9.3531 89.6715
C 13.8926 -9.3531 -58.436
C -1.33148 31.1096 -27.2005
C 9.76626 21.0254 61.454
C -9.76626 -21.0254 92.6895
C 9.76626 -21.0254 -61.454
C -9.76626 21.0254 -30.2185
C 16.0468 31.9037 61.454
C -3.48571 -10.1472 92.6895
C 16.0468 -10.1472 -61.454
C -3.48571 31.9037 -30.2185
C 7.83624 20.9286 8.47731
C -7.83624 -20.9286 39.7128
C 7.83624 -20.9286 -8.47731
C -7.83624 20.9286 22.7582
C 14.1168 31.8069 8.47731
C -1.55569 -10.0504 39.7128
C 14.1168 -10.0504 -8.47731
C -1.55569 31.8069 22.7582
C 6.41433 20.933 10.324
C -6.41433 -20.933 41.5595
C 6.41433 -20.933 -10.324
C -6.41433 20.933 20.9115
C 12.6949 31.8112 10.324
C -0.133776 -10.0547 41.5595
C 12.6949 -10.0547 -10.324
C -0.133776 31.8112 20.9115
C 5.63617 21.3061 8.25429
C -5.63617 -21.3061 39.4898
C 5.63617 -21.3061 -8.25429
C -5.63617 21.3061 22.9812
C 11.9167 32.1843 8.25429
C 0.644384 -10.4279 39.4898
C 11.9167 -10.4279 -8.25429
C 0.644384 32.1843 22.9812
C 9.4359 20.9906 6.63754
C -9.4359 -20.9906 37.873
C 9.4359 -20.9906 -6.63754
C -9.4359 20.9906 24.598
C 15.7164 31.8689 6.63754
C -3.15535 -10.1124 37.873
C 15.7164 -10.1124 -6.63754
C -3.15535 31.8689 24.598
C 9.25502 19.7766 5.78856
C -9.25502 -19.7766 37.0241
C 9.25502 -19.7766 -5.78856
C -9.25502 19.7766 25.4469
C 15.5356 30.6549 5.78856
C -2.97447 -8.89839 37.0241
C 15.5356 -8.89839 -5.78856
C -2.97447 30.6549 25.4469
C 4.95912 20.9798 12.2837
C -4.95912 -20.9798 43.5192
C 4.95912 -20.9798 -12.2837
C -4.95912 20.9798 18.9518
C 11.2397 31.858 12.2837
C 1.32143 -10.1015 43.5192
C 11.2397 -10.1015 -12.2837
C 1.32143 31.858 18.9518
C 4.85047 20.1846 13.5625
C -4.85047 -20.1846 44.798
C 4.85047 -20.1846 -13.5625
C -4.85047 20.1846 17.673
C 11.131 31.0628 13.5625
C 1.43008 -9.30633 44.798
C 11.131 -9.30633 -13.5625
C 1.43008 31.0628 17.673
C 3.25332 0.0456886 7.99192
C -3.25332 -0.0456886 39.2274
C 3.25332 -0.0456886 -7.99192
C -3.25332 0.0456886 23.2436
C 9.53387 10.9239 7.99192
C 3.02723 10.8325 39.2274
C 9.53387 10.8325 -7.99192
C 3.02723 10.9239 23.2436
C 3.16037 1.42287 8.66223
C -3.16037 -1.42287 39.8977
C 3.16037 -1.42287 -8.66223
C -3.16037 1.42287 22.5733
C 9.44092 12.3011 8.66223
C 3.12018 9.45536 39.8977
C 9.44092 9.45536 -8.66223
C 3.12018 12.3011 22.5733
C 4.74747 17.4715 6.19213
C -4.74747 -17.4715 37.4276
C 4.74747 -17.4715 -6.19213
C -4.74747 17.4715 25.0434
C 11.028 28.3498 6.19213
C 1.53308 -6.5933 37.4276
C 11.028 -6.5933 -6.19213
C 1.53308 28.3498 25.0434
C 3.70678 17.7011 7.07547
C -3.70678 -17.7011 38.311
C 3.70678 -17.7011 -7.07547
C -3.70678 17.7011 24.16
C 9.98733 28.5793 7.07547
C 2.57377 -6.82283 38.311
C 9.98733 -6.82283 -7.07547
C 2.57377 28.5793 24.16
C 3.96428 17.9447 8.4061
C -3.96428 -17.9447 39.6416
C 3.96428 -17.9447 -8.4061
C -3.96428 17.9447 22.8294
C 10.2448 28.823 8.4061
C 2.31627 -7.0665 39.6416
C 10.2448 -7.0665 -8.4061
C 2.31627 28.823 22.8294
C 5.2945 17.9317 8.78717
C -5.2945 -17.9317 40.0227
C 5.2945 -17.9317 -8.78717
C -5.2945 17.9317 22.4483
C 11.5751 28.8099 8.78717
C 0.986046 -7.05344 40.0227
C 11.5751 -7.05344 -8.78717
C 0.986046 28.8099 22.4483
C 6.27992 17.7 7.8701
C -6.27992 -17.7 39.1056
C 6.27992 -17.7 -7.8701
C -6.27992 17.7 23.3654
C 12.5605 28.5782 7.8701
C 0.000628055 -6.82174 39.1056
C 12.5605 -6.82174 -7.8701
C 0.000628055 28.5782 23.3654
C 2.8721 18.2526 9.38752
C -2.8721 -18.2526 40.623
C 2.8721 -18.2526 -9.38752
C -2.8721 18.2526 21.848
C 9.15265 29.1308 9.38752
C 3.40845 -7.37435 40.623
C 9.15265 -7.37435 -9.38752
C 3.40845 29.1308 21.848
C 6.04754 16.9777 18.2453
C -6.04754 -16.9777 49.4808
C 6.04754 -16.9777 -18.2453
C -6.04754 16.9777 12.9902
C 12.3281 27.8559 18.2453
C 0.233008 -6.09942 49.4808
C 12.3281 -6.09942 -18.2453
C 0.233008 27.8559 12.9902
C 6.1474 15.9562 19.1399
C -6.1474 -15.9562 50.3754
C 6.1474 -15.9562 -19.1399
C -6.1474 15.9562 12.0956
C 12.428 26.8344 19.1399
C 0.133148 -5.07796 50.3754
C 12.428 -5.07796 -19.1399
C 0.133148 26.8344 12.0956
C 6.89165 14.8325 18.8319
C -6.89165 -14.8325 50.0674
C 6.89165 -14.8325 -18.8319
C -6.89165 14.8325 12.4036
C 13.1722 25.7107 18.8319
C -0.611098 -3.95424 50.0674
C 13.1722 -3.95424 -18.8319
C -0.611098 25.7107 12.4036
C 7.58314 14.8488 17.6149
C -7.58314 -14.8488 48.8504
C 7.58314 -14.8488 -17.6149
C -7.58314 14.8488 13.6206
C 13.8637 25.727 17.6149
C -1.30259 -3.97055 48.8504
C 13.8637 -3.97055 -17.6149
C -1.30259 25.727 13.6206
C 7.43429 15.9268 16.7891
C -7.43429 -15.9268 48.0246
C 7.43429 -15.9268 -16.7891
C -7.43429 15.9268 14.4464
C 13.7148 26.805 16.7891
C -1.15374 -5.04859 48.0246
C 13.7148 -5.04859 -16.7891
C -1.15374 26.805 14.4464
C 7.04489 13.6641 19.8071
C -7.04489 -13.6641 51.0426
C 7.04489 -13.6641 -19.8071
C -7.04489 13.6641 11.4284
C 13.3254 24.5424 19.8071
C -0.764343 -2.78591 51.0426
C 13.3254 -2.78591 -19.8071
C -0.764343 24.5424 11.4284
C 7.24399 0 31.2355
C -7.24399 0 62.471
C 13.5245 10.8782 31.2355
C -0.963436 10.8782 62.471
C 2.65856 4.60475 52.059
C -2.65856 -4.60475 83.2945
C 2.65856 -4.60475 -52.059
C -2.65856 4.60475 -20.8235
C 8.93911 15.483 52.059
C 3.62199 6.27348 83.2945
C 8.93911 6.27348 -52.059
C 3.62199 15.483 -20.8235
C 1.8088 18.6235 41.6475
C -1.8088 -18.6235 72.883
C 1.8088 -18.6235 -41.6475
C -1.8088 18.6235 -10.412
C 8.08935 29.5018 41.6475
C 4.47175 -7.7453 72.883
C 8.08935 -7.7453 -41.6475
C 4.47175 29.5018 -10.412
C 8.9435 0 0
C -8.9435 0 31.2355
C 15.2241 10.8782 0
C -2.66295 10.8782 31.2355
N 8.64581 16.1281 28.4793
N -8.64581 -16.1281 59.7148
N 8.64581 -16.1281 -28.4793
N -8.64581 16.1281 2.75622
N 14.9264 27.0063 28.4793
N -2.36526 -5.24983 59.7148
N 14.9264 -5.24983 -28.4793
N -2.36526 27.0063 2.75622
N 7.8645 15.6059 30.667
N -7.8645 -15.6059 61.9025
N 7.8645 -15.6059 -30.667
N -7.8645 15.6059 0.568486
N 14.1451 26.4841 30.667
N -1.58395 -4.72768 61.9025
N 14.1451 -4.72768 -30.667
N -1.58395 26.4841 0.568486
N 9.42585 17.3725 30.4053
N -9.42585 -17.3725 61.6408
N 9.42585 -17.3725 -30.4053
N -9.42585 17.3725 0.83024
N 15.7064 28.2508 30.4053
N -3.1453 -6.4943 61.6408
N 15.7064 -6.4943 -30.4053
N -3.1453 28.2508 0.83024
N 7.23331 14.3495 28.8728
N -7.23331 -14.3495 60.1083
N 7.23331 -14.3495 -28.8728
N -7.23331 14.3495 2.36265
N 13.5139 25.2277 28.8728
N -0.952759 -3.47124 60.1083
N 13.5139 -3.47124 -28.8728
N -0.952759 25.2277 2.36265
N 8.5987 16.8319 32.4624
N -8.5987 -16.8319 63.6979
N 8.5987 -16.8319 -32.4624
N -8.5987 16.8319 -1.22693
N 14.8793 27.7101 32.4624
N -2.31815 -5.95366 63.6979
N 14.8793 -5.95366 -32.4624
N -2.31815 27.7101 -1.22693
N 10.069 17.9143 28.2862
N -10.069 -17.9143 59.5217
N 10.069 -17.9143 -28.2862
N -10.069 17.9143 2.94926
N 16.3495 28.7925 28.2862
N -3.78843 -7.03604 59.5217
N 16.3495 -7.03604 -28.2862
N -3.78843 28.7925 2.94926
N 5.83337 18.6714 27.3773
N -5.83337 -18.6714 58.6128
N 5.83337 -18.6714 -27.3773
N -5.83337 18.6714 3.85821
N 12.1139 29.5496 27.3773
N 0.447175 -7.79316 58.6128
N 12.1139 -7.79316 -27.3773
N 0.447175 29.5496 3.85821
N 5.10734 18.369 37.883
N -5.10734 -18.369 69.1185
N 5.10734 -18.369 -37.883
N -5.10734 18.369 -6.64754
N 11.3879 29.2472 37.883
N 1.17321 -7.49075 69.1185
N 11.3879 -7.49075 -37.883
N 1.17321 29.2472 -6.64754
N 3.36386 17.0832 49.3027
N -3.36386 -17.0832 80.5382
N 3.36386 -17.0832 -49.3027
N -3.36386 17.0832 -18.0672
N 9.64441 27.9614 49.3027
N 2.91669 -6.20494 80.5382
N 9.64441 -6.20494 -49.3027
N 2.91669 27.9614 -18.0672
N 3.30231 18.0209 51.4905
N -3.30231 -18.0209 82.726
N 3.30231 -18.0209 -51.4905
N -3.30231 18.0209 -20.255
N 9.58286 28.8991 51.4905
N 2.97824 -7.14265 82.726
N 9.58286 -7.14265 -51.4905
N 2.97824 28.8991 -20.255
N 4.05158 15.7854 51.2287
N -4.05158 -15.7854 82.4642
N 4.05158 -15.7854 -51.2287
N -4.05158 15.7854 -19.9932
N 10.3321 26.6636 51.2287
N 2.22897 -4.90717 82.4642
N 10.3321 -4.90717 -51.2287
N 2.22897 26.6636 -19.9932
N 2.52981 19.1957 49.6963
N -2.52981 -19.1957 80.9318
N 2.52981 -19.1957 -49.6963
N -2.52981 19.1957 -18.4608
N 8.81036 30.074 49.6963
N 3.75074 -8.31749 80.9318
N 8.81036 -8.31749 -49.6963
N 3.75074 30.074 -18.4608
N 3.99694 16.7721 53.2859
N -3.99694 -16.7721 84.5214
N 3.99694 -16.7721 -53.2859
N -3.99694 16.7721 -22.0504
N 10.2775 27.6503 53.2859
N 2.28361 -5.89383 84.5214
N 10.2775 -5.89383 -53.2859
N 2.28361 27.6503 -22.0504
N 4.19918 14.9576 49.1097
N -4.19918 -14.9576 80.3452
N 4.19918 -14.9576 -49.1097
N -4.19918 14.9576 -17.8742
N 10.4797 25.8358 49.1097
N 2.08137 -4.07934 80.3452
N 10.4797 -4.07934 -49.1097
N 2.08137 25.8358 -17.8742
N 6.97267 18.2471 48.2007
N -6.97267 -18.2471 79.4362
N 6.97267 -18.2471 -48.2007
N -6.97267 18.2471 -16.9652
N 13.2532 29.1254 48.2007
N -0.692117 -7.36891 79.4362
N 13.2532 -7.36891 -48.2007
N -0.692117 29.1254 -16.9652
N 7.07378 19.0271 58.7065
N -7.07378 -19.0271 89.942
N 7.07378 -19.0271 -58.7065
N -7.07378 19.0271 -27.471
N 13.3543 29.9053 58.7065
N -0.793233 -8.14888 89.942
N 13.3543 -8.14888 -58.7065
N -0.793233 29.9053 -27.471
N 6.83198 21.1799 7.65582
N -6.83198 -21.1799 38.8913
N 6.83198 -21.1799 -7.65582
N -6.83198 21.1799 23.5797
N 13.1125 32.0581 7.65582
N -0.551432 -10.3017 38.8913
N 13.1125 -10.3017 -7.65582
N -0.551432 32.0581 23.5797
N 7.67483 20.7644 9.84356
N -7.67483 -20.7644 41.0791
N 7.67483 -20.7644 -9.84356
N -7.67483 20.7644 21.3919
N 13.9554 31.6426 9.84356
N -1.39428 -9.88614 41.0791
N 13.9554 -9.88614 -9.84356
N -1.39428 31.6426 21.3919
N 5.36422 21.2332 9.5818
N -5.36422 -21.2332 40.8173
N 5.36422 -21.2332 -9.5818
N -5.36422 21.2332 21.6537
N 11.6448 32.1114 9.5818
N 0.916332 -10.355 40.8173
N 11.6448 -10.355 -9.5818
N 0.916332 32.1114 21.6537
N 9.07854 20.846 8.04939
N -9.07854 -20.846 39.2849
N 9.07854 -20.846 -8.04939
N -9.07854 20.846 23.1861
N 15.3591 31.7242 8.04939
N -2.79799 -9.96772 39.2849
N 15.3591 -9.96772 -8.04939
N -2.79799 31.7242 23.1861
N 6.24601 20.7872 11.639
N -6.24601 -20.7872 42.8745
N 6.24601 -20.7872 -11.639
N -6.24601 20.7872 19.5965
N 12.5266 31.6654 11.639
N 0.034543 -9.90898 42.8745
N 12.5266 -9.90898 -11.639
N 0.034543 31.6654 19.5965
N 4.5735 21.5193 7.46279
N -4.5735 -21.5193 38.6983
N 4.5735 -21.5193 -7.46279
N -4.5735 21.5193 23.7727
N 10.854 32.3975 7.46279
N 1.70705 -10.6411 38.6983
N 10.854 -10.6411 -7.46279
N 1.70705 32.3975 23.7727
N 6.03561 17.4726 6.55383
N -6.03561 -17.4726 37.7893
N 6.03561 -17.4726 -6.55383
N -6.03561 17.4726 24.6817
N 12.3162 28.3508 6.55383
N 0.244941 -6.59438 37.7893
N 12.3162 -6.59438 -6.55383
N 0.244941 28.3508 24.6817
N 6.66052 16.9951 17.0596
N -6.66052 -16.9951 48.2951
N 6.66052 -16.9951 -17.0596
N -6.66052 16.9951 14.1759
N 12.9411 27.8733 17.0596
N -0.379973 -6.11683 48.2951
N 12.9411 -6.11683 -17.0596
N -0.379973 27.8733 14.1759
O 5.76554 15.7952 27.0774
O -5.76554 -15.7952 58.3129
O 5.76554 -15.7952 -27.0774
O -5.76554 15.7952 4.15807
O 12.0461 26.6734 27.0774
O 0.515005 -4.91696 58.3129
O 12.0461 -4.91696 -27.0774
O 0.515005 26.6734 4.15807
O 5.96778 14.2461 25.4907
O -5.96778 -14.2461 56.7262
O 5.96778 -14.2461 -25.4907
O -5.96778 14.2461 5.74483
O 12.2483 25.1244 25.4907
O 0.312771 -3.3679 56.7262
O 12.2483 -3.3679 -25.4907
O 0.312771 25.1244 5.74483
O 7.98886 17.5618 34.9881
O -7.98886 -17.5618 66.2236
O 7.98886 -17.5618 -34.9881
O -7.98886 17.5618 -3.75263
O 14.2694 28.44 34.9881
O -1.70831 -6.68358 66.2236
O 14.2694 -6.68358 -34.9881
O -1.70831 28.44 -3.75263
O 9.09549 19.4981 34.7789
O -9.09549 -19.4981 66.0144
O 9.09549 -19.4981 -34.7789
O -9.09549 19.4981 -3.54336
O 15.376 30.3764 34.7789
O -2.81494 -8.61991 66.0144
O 15.376 -8.61991 -34.7789
O -2.81494 30.3764 -3.54336
O 6.38795 7.95743 30.5165
O -6.38795 -7.95743 61.752
O 6.38795 -7.95743 -30.5165
O -6.38795 7.95743 0.719041
O 12.6685 18.8357 30.5165
O -0.107397 2.9208 61.752
O 12.6685 2.9208 -30.5165
O -0.107397 18.8357 0.719041
O 6.42249 6.4051 28.9322
O -6.42249 -6.4051 60.1677
O 6.42249 -6.4051 -28.9322
O -6.42249 6.4051 2.30331
O 12.703 17.2833 28.9322
O -0.14194 4.47313 60.1677
O 12.703 4.47313 -28.9322
O -0.14194 17.2833 2.30331
O 4.51572 19.744 47.9009
O -4.51572 -19.744 79.1364
O 4.51572 -19.744 -47.9009
O -4.51572 19.744 -16.6654
O 10.7963 30.6222 47.9009
O 1.76483 -8.86576 79.1364
O 10.7963 -8.86576 -47.9009
O 1.76483 30.6222 -16.6654
O 3.07307 20.3434 46.3141
O -3.07307 -20.3434 77.5496
O 3.07307 -20.3434 -46.3141
O -3.07307 20.3434 -15.0786
O 9.35362 31.2216 46.3141
O 3.20748 -9.46515 77.5496
O 9.35362 -9.46515 -46.3141
O 3.20748 31.2216 -15.0786
O 4.934 16.9352 55.8116
O -4.934 -16.9352 87.0471
O 4.934 -16.9352 -55.8116
O -4.934 16.9352 -24.5761
O 11.2146 27.8135 55.8116
O 1.34655 -6.057 87.0471
O 11.2146 -6.057 -55.8116
O 1.34655 27.8135 -24.5761
O 6.05759 15.0087 55.6023
O -6.05759 -15.0087 86.8378
O 6.05759 -15.0087 -55.6023
O -6.05759 15.0087 -24.3668
O 12.3381 25.8869 55.6023
O 0.22296 -4.13046 86.8378
O 12.3381 -4.13046 -55.6023
O 0.22296 25.8869 -24.3668
O 9.97791 1.36739 51.3399
O -9.97791 -1.36739 82.5754
O 9.97791 -1.36739 -51.3399
O -9.97791 1.36739 -20.1044
O 16.2585 12.2456 51.3399
O -3.69736 9.51084 82.5754
O 16.2585 9.51084 -51.3399
O -3.69736 12.2456 -20.1044
O 8.61629 2.11364 49.7557
O -8.61629 -2.11364 80.9912
O 8.61629 -2.11364 -49.7557
O -8.61629 2.11364 -18.5202
O 14.8968 12.9919 49.7557
O -2.33574 8.76459 80.9912
O 14.8968 8.76459 -49.7557
O -2.33574 12.9919 -18.5202
O 8.56039 18.852 6.25397
O -8.56039 -18.852 37.4895
O 8.56039 -18.852 -6.25397
O -8.56039 18.852 24.9815
O 14.8409 29.7302 6.25397
O -2.27984 -7.97374 37.4895
O 14.8409 -7.97374 -6.25397
O -2.27984 29.7302 24.9815
O 9.8008 19.8016 4.66721
O -9.8008 -19.8016 35.9027
O 9.8008 -19.8016 -4.66721
O -9.8008 19.8016 26.5683
O 16.0813 30.6799 4.66721
O -3.52025 -8.92341 35.9027
O 16.0813 -8.92341 -4.66721
O -3.52025 30.6799 26.5683
O 5.91879 19.8941 14.1647
O -5.91879 -19.8941 45.4002
O 5.91879 -19.8941 -14.1647
O -5.91879 19.8941 17.0708
O 12.1993 30.7723 14.1647
O 0.36176 -9.01588 45.4002
O 12.1993 -9.01588 -14.1647
O 0.36176 30.7723 17.0708
O 3.68857 19.8843 13.9554
O -3.68857 -19.8843 45.1909
O 3.68857 -19.8843 -13.9554
O -3.68857 19.8843 17.2801
O 9.96912 30.7625 13.9554
O 2.59198 -9.00609 45.1909
O 9.96912 -9.00609 -13.9554
O 2.59198 30.7625 17.2801
O 2.47579 1.55341 9.693
O -2.47579 -1.55341 40.9285
O 2.47579 -1.55341 -9.693
O -2.47579 1.55341 21.5425
O 8.75634 12.4316 9.693
O 3.80476 9.32482 40.9285
O 8.75634 9.32482 -9.693
O 3.80476 12.4316 21.5425
O 3.80287 2.35949 8.10874
O -3.80287 -2.35949 39.3442
O 3.80287 -2.35949 -8.10874
O -3.80287 2.35949 23.1268
O 10.0834 13.2377 8.10874
O 2.47768 8.51874 39.3442
O 10.0834 8.51874 -8.10874
O 2.47768 13.2377 23.1268
